units(length='cm', time='s', quantity='mol', act_energy='cal/mol')

ideal_gas(name='gas',
          elements="O H C N Kr",
          species="""iC5H11ONO  NO         H2CO       iC4H9      CH3
                     C3H6       iC4H8      H          DMH25      iC4H10
                     H2         iC5H12     CH4        C2H6       Kr""",
          reactions='all',
          initial_state=state(temperature=300.0, pressure=OneAtm))

#-------------------------------------------------------------------------------
# Species data
#-------------------------------------------------------------------------------

species(name=u'iC5H11ONO',
        atoms='H:11 C:5 O:2 N:1',
        thermo=(NASA([100.00, 1487.86],
                     [ 2.87124286E+00,  6.69347987E-02, -3.96339704E-05,
                       1.04436088E-08, -8.27056790E-13, -2.33391169E+04,
                       1.70970543E+01]),
                NASA([1487.86, 5000.00],
                     [ 2.08332516E+01,  2.83949684E-02, -1.06089504E-05,
                       1.84257007E-09, -1.21883574E-13, -2.97632607E+04,
                      -8.03227926E+01])))

species(name=u'NO',
        atoms='O:1 N:1',
        thermo=(NASA([200.00, 1000.00],
                     [ 4.08517990E+00, -3.64693188E-03,  8.49607612E-06,
                      -6.62405734E-09,  1.77647373E-12,  9.84061267E+03,
                       2.83578236E+00]),
                NASA([1000.00, 6000.00],
                     [ 3.25487317E+00,  1.19869941E-03, -4.33028500E-07,
                       7.02943336E-11, -4.09788575E-15,  9.90699836E+03,
                       6.40395140E+00])),
        note=u'ATcT3E')

species(name=u'H2CO',
        atoms='H:2 C:1 O:1',
        thermo=(NASA([200.00, 1000.00],
                     [ 4.77187231E+00, -9.76266155E-03,  3.70121918E-05,
                      -3.76921617E-08,  1.31326646E-11, -1.43798106E+04,
                       6.96585679E-01]),
                NASA([1000.00, 6000.00],
                     [ 2.91332516E+00,  6.70039926E-03, -2.55520684E-06,
                       4.27795142E-10, -2.44072521E-14, -1.44622358E+04,
                       7.43822875E+00])),
        note=u'ATcT3E')

species(name=u'iC4H9',
        atoms='H:9 C:4',
        thermo=(NASA([200.00, 1000.00],
                     [ 3.34476784E+00,  2.31869650E-02,  3.28261040E-05,
                      -5.96398514E-08,  2.58980820E-11,  6.66201200E+03,
                       9.68860372E+00]),
                NASA([1000.00, 6000.00],
                     [ 9.61250942E+00,  2.28581786E-02, -8.06391309E-06,
                       1.28556553E-09, -7.62730799E-14,  4.15218608E+03,
                      -2.66485099E+01])),
        note=u'T6/04')

species(name=u'CH3',
        atoms='H:3 C:1',
        thermo=(NASA([200.00, 1000.00],
                     [ 3.61264389E+00,  3.09209041E-03,  9.25474611E-07,
                      -1.65776770E-09,  6.07243533E-13,  1.63849955E+04,
                       1.79994780E+00]),
                NASA([1000.00, 6000.00],
                     [ 2.92198336E+00,  5.37478625E-03, -1.99748367E-06,
                       2.97584806E-10, -1.71860088E-14,  1.65446753E+04,
                       5.25396822E+00])),
        note=u'ATcT3E')

species(name=u'C3H6',
        atoms='H:6 C:3',
        thermo=(NASA([200.00, 1000.00],
                     [ 3.83464468E+00,  3.29078952E-03,  5.05228001E-05,
                      -6.66251176E-08,  2.63707473E-11,  7.88717123E+02,
                       7.53408013E+00]),
                NASA([1000.00, 6000.00],
                     [ 6.03870234E+00,  1.62963931E-02, -5.82130800E-06,
                       9.35936829E-10, -5.58603143E-14, -7.41715057E+02,
                      -8.43825992E+00])),
        note=u'g2/00')

species(name=u'iC4H8',
        atoms='H:8 C:4',
        thermo=(NASA([200.00, 1000.00],
                     [ 3.30612340E+00,  1.33377057E-02,  5.65726066E-05,
                      -8.46898088E-08,  3.52403438E-11, -4.04128388E+03,
                       9.92304633E+00]),
                NASA([1000.00, 6000.00],
                     [ 8.94232121E+00,  2.12900129E-02, -7.61851464E-06,
                       1.22641473E-09, -7.32634442E-14, -6.67292929E+03,
                      -2.46775148E+01])),
        note=u'IsobutenT05/09')

species(name=u'H',
        atoms='H:1',
        thermo=(NASA([200.00, 1000.00],
                     [ 2.49975925E+00,  6.73824499E-07,  1.11807261E-09,
                      -3.70192126E-12,  2.14233822E-15,  2.54737665E+04,
                      -4.45574009E-01]),
                NASA([1000.00, 6000.00],
                     [ 2.49985211E+00,  2.34582548E-07, -1.16171641E-10,
                       2.25708298E-14, -1.52992005E-18,  2.54738024E+04,
                      -4.45864645E-01])),
        note=u'ATcT3E')

species(name=u'DMH25',
        atoms='H:18 C:8',
        thermo=(NASA([100.00, 1146.67],
                     [-3.21054683E-01,  8.54793093E-02, -2.80993665E-05,
                      -1.24950408E-08,  7.78224572E-12, -3.00310858E+04,
                       3.11556888E+01]),
                NASA([1146.67, 5000.00],
                     [ 1.69448484E+01,  5.24247295E-02, -2.04082063E-05,
                       3.70113422E-09, -2.54920636E-13, -3.57773116E+04,
                      -6.22955959E+01])))

species(name=u'iC4H10',
        atoms='H:10 C:4',
        thermo=(NASA([200.00, 1000.00],
                     [ 4.45479140E+00,  8.26058864E-03,  8.29886433E-05,
                      -1.14647616E-07,  4.64569994E-11, -1.84593929E+04,
                       4.92740653E+00]),
                NASA([1000.00, 6000.00],
                     [ 9.76991697E+00,  2.54997141E-02, -9.14142587E-06,
                       1.47328201E-09, -8.80799697E-14, -2.14052667E+04,
                      -3.00329670E+01])),
        note=u'g8/00')

species(name=u'H2',
        atoms='H:2',
        thermo=(NASA([200.00, 1000.00],
                     [ 2.34433112E+00,  7.98052075E-03, -1.94781510E-05,
                       2.01572094E-08, -7.37611761E-12, -9.17935173E+02,
                       6.83010238E-01]),
                NASA([1000.00, 6000.00],
                     [ 2.93286575E+00,  8.26608026E-04, -1.46402364E-07,
                       1.54100414E-11, -6.88804800E-16, -8.13065581E+02,
                      -1.02432865E+00])),
        note=u'tpis78')

species(name=u'iC5H12',
        atoms='H:12 C:5',
        thermo=(NASA([200.00, 1000.00],
                     [ 2.19440218E+00,  3.61717165E-02,  3.01586516E-05,
                      -5.87986428E-08,  2.47059837E-11, -2.09097364E+04,
                       1.71851550E+01]),
                NASA([1000.00, 6000.00],
                     [ 1.04816310E+01,  3.42018698E-02, -1.20571041E-05,
                       1.91951808E-09, -1.13803609E-13, -2.43557061E+04,
                      -3.10177093E+01])),
        note=u'P10/85')

species(name=u'CH4',
        atoms='H:4 C:1',
        thermo=(NASA([200.00, 1000.00],
                     [ 5.00701913E+00, -1.26484158E-02,  4.66821073E-05,
                      -4.59210565E-08,  1.57633618E-11, -1.02223522E+04,
                      -4.04227377E+00]),
                NASA([1000.00, 6000.00],
                     [ 1.68377091E+00,  1.00130251E-02, -3.31267639E-06,
                       5.30233546E-10, -3.13372430E-14, -1.00187792E+04,
                       9.71477402E+00])),
        note=u'ATcT3E')

species(name=u'C2H6',
        atoms='H:6 C:2',
        thermo=(NASA([200.00, 1000.00],
                     [ 4.14633324E+00, -4.42384448E-03,  5.70675847E-05,
                      -6.76419283E-08,  2.57224127E-11, -1.15146647E+04,
                       3.26635850E+00]),
                NASA([1000.00, 6000.00],
                     [ 4.78171786E+00,  1.48712183E-02, -5.79004595E-06,
                       1.08497776E-09, -7.73100771E-14, -1.28668191E+04,
                      -5.44800837E+00])),
        note=u'ATcT3E')

species(name=u'Kr',
        atoms='Kr:1',
        thermo=(NASA([200.00, 1000.00],
                     [ 2.50000000E+00,  0.00000000E+00,  0.00000000E+00,
                       0.00000000E+00,  0.00000000E+00, -7.45375000E+02,
                       5.49095651E+00]),
                NASA([1000.00, 6000.00],
                     [ 2.50001436E+00, -2.78190281E-08,  1.74071629E-11,
                      -4.31400304E-15,  3.66743374E-19, -7.45380247E+02,
                       5.49087778E+00])),
        note=u'REFELEMENTg8/97')

#-------------------------------------------------------------------------------
# Reaction data
#-------------------------------------------------------------------------------

# Reaction 1
reaction('iC5H11ONO <=> NO + H2CO + iC4H9', [1.260000e+13, 0.0, 31059.0])

# Reaction 2
reaction('iC4H9 <=> CH3 + C3H6', [1.750000e+35, -6.95, 35721.0])

# Reaction 3
reaction('iC4H9 <=> iC4H8 + H', [3.950000e+33, -6.95, 35721.0])

# Reaction 4
reaction('iC4H9 + iC4H9 <=> DMH25', [9.250000e+13, -0.84, -1311.0])

# Reaction 5
reaction('iC4H9 + iC4H9 <=> iC4H8 + iC4H10', [9.250000e+12, -0.84, -1311.0])

# Reaction 6
reaction('iC4H9 + H <=> iC4H8 + H2', [9.040000e+11, 0.0, 0.0])

# Reaction 7
reaction('iC4H9 + H <=> iC4H10', [5.450000e+13, 0.16, 0.0])

# Reaction 8
reaction('iC4H9 + CH3 <=> iC5H12', [8.770000e+14, -0.56, -270.0])

# Reaction 9
reaction('iC4H9 + CH3 <=> CH4 + iC4H8', [4.550000e+12, -0.44, -683.0])

# Reaction 10
reaction('CH3 + CH3 <=> C2H6', [2.110000e+16, -0.97, -612.0])
