units(length='cm', time='s', quantity='mol', act_energy='cal/mol')

ideal_gas(name='gas',
          elements="C H O Ar Kr",
          species="""kr         mf2        mf22j      h          c4h5-n
                     co         h2         c3h4-p     ch2co      c4h6-1
                     ch3co      c3h3       furan      ch3        ch2chchco
                     c2h6       ch4        c6h6       c4h6       c2h4
                     c2h2       c2h3       c4h4       c3h4-a     fulvene
                     c4h612     c4h6-2""",
          reactions='all',
          initial_state=state(temperature=300.0, pressure=OneAtm))

#-------------------------------------------------------------------------------
# Species data
#-------------------------------------------------------------------------------

species(name=u'kr',
        atoms='Kr:1',
        thermo=(NASA([200.00, 1000.00],
                     [ 2.50000000E+00,  0.00000000E+00,  0.00000000E+00,
                       0.00000000E+00,  0.00000000E+00, -7.45375000E+02,
                       5.49095651E+00]),
                NASA([1000.00, 6000.00],
                     [ 2.50001436E+00, -2.78190281E-08,  1.74071629E-11,
                      -4.31400304E-15,  3.66743374E-19, -7.45380247E+02,
                       5.49087778E+00])),
        note=u'REFELEMENTg8/97')

species(name=u'mf2',
        atoms='H:6 C:5 O:1',
        thermo=(NASA([298.15, 1000.00],
                     [-2.84971730E+00,  5.52316440E-02, -3.65110720E-05,
                       8.32948240E-09,  7.42313490E-13, -1.10344430E+04,
                       3.85458850E+01]),
                NASA([1000.00, 2000.00],
                     [ 4.59933100E+00,  3.40025700E-02, -1.75181400E-05,
                       4.23464670E-09, -3.75757330E-13, -1.29526080E+04,
                       4.66753790E-01])),
        note=u'jms')

species(name=u'mf22j',
        atoms='H:5 C:5 O:1',
        thermo=(NASA([300.00, 1403.00],
                     [-4.07776509E+00,  6.55331235E-02, -6.08690897E-05,
                       2.84965512E-08, -5.25053289E-12,  6.25552779E+03,
                       4.26812061E+01]),
                NASA([1403.00, 5000.00],
                     [ 1.45042651E+01,  1.37456985E-02, -4.68839829E-06,
                       7.26722703E-10, -4.21220884E-14,  6.73479549E+02,
                      -5.40879545E+01])))

species(name=u'h',
        atoms='H:1',
        thermo=(NASA([200.00, 1000.00],
                     [ 2.50000000E+00,  0.00000000E+00,  0.00000000E+00,
                       0.00000000E+00,  0.00000000E+00,  2.54736600E+04,
                      -4.46682850E-01]),
                NASA([1000.00, 6000.00],
                     [ 2.50000000E+00,  0.00000000E+00,  0.00000000E+00,
                       0.00000000E+00,  0.00000000E+00,  2.54736600E+04,
                      -4.46682850E-01])),
        note=u'l6/94')

species(name=u'c4h5-n',
        atoms='H:5 C:4',
        thermo=(NASA([300.00, 1000.00],
                     [ 1.63053210E-01,  3.98301370E-02, -3.40001280E-05,
                       1.51472330E-08, -2.46658250E-12,  4.14297660E+04,
                       2.35361630E+01]),
                NASA([1000.00, 3000.00],
                     [ 9.85019780E+00,  1.07790080E-02, -1.36721250E-06,
                      -7.72005350E-10,  1.83663140E-13,  3.88403010E+04,
                      -2.60018460E+01])),
        note=u'h6w/94')

species(name=u'co',
        atoms='C:1 O:1',
        thermo=(NASA([200.00, 1000.00],
                     [ 3.57953350E+00, -6.10353690E-04,  1.01681430E-06,
                       9.07005860E-10, -9.04424490E-13, -1.43440860E+04,
                       3.50840930E+00]),
                NASA([1000.00, 6000.00],
                     [ 3.04848590E+00,  1.35172810E-03, -4.85794050E-07,
                       7.88536440E-11, -4.69807460E-15, -1.42661170E+04,
                       6.01709770E+00])),
        note=u'rus79')

species(name=u'h2',
        atoms='H:2',
        thermo=(NASA([200.00, 1000.00],
                     [ 2.34433112E+00,  7.98052075E-03, -1.94781510E-05,
                       2.01572094E-08, -7.37611761E-12, -9.17935173E+02,
                       6.83010238E-01]),
                NASA([1000.00, 6000.00],
                     [ 2.93286575E+00,  8.26608026E-04, -1.46402364E-07,
                       1.54100414E-11, -6.88804800E-16, -8.13065581E+02,
                      -1.02432865E+00])),
        note=u'tpis78')

species(name=u'c3h4-p',
        atoms='H:4 C:3',
        thermo=(NASA([200.00, 1000.00],
                     [ 2.68038690E+00,  1.57996510E-02,  2.50705960E-06,
                      -1.36576230E-08,  6.61542850E-12,  2.08023740E+04,
                       9.87693510E+00]),
                NASA([1000.00, 6000.00],
                     [ 6.02524000E+00,  1.13365420E-02, -4.02233910E-06,
                       6.43760630E-10, -3.82996350E-14,  1.96209420E+04,
                      -8.60437850E+00])),
        note=u't2/90')

species(name=u'ch2co',
        atoms='H:2 C:2 O:1',
        thermo=(NASA([300.00, 1000.00],
                     [ 1.81422511E+00,  1.99008590E-02, -2.21416008E-05,
                       1.45028521E-08, -3.98877068E-12, -7.05394926E+03,
                       1.36079359E+01]),
                NASA([1000.00, 5000.00],
                     [ 5.35869367E+00,  6.95641586E-03, -2.64802637E-06,
                       4.65067592E-10, -3.08641820E-14, -7.90294013E+03,
                      -3.98525731E+00])))

species(name=u'c4h6-1',
        atoms='H:6 C:4',
        thermo=(NASA([300.00, 1365.00],
                     [ 2.67557212E+00,  2.69069101E-02, -9.86727879E-06,
                       6.63878457E-13,  4.94968590E-13,  1.79976713E+04,
                       1.21885731E+01]),
                NASA([1365.00, 5000.00],
                     [ 1.08459156E+01,  1.41764618E-02, -4.99614539E-06,
                       7.91304300E-10, -4.65508308E-14,  1.44024355E+04,
                      -3.41536387E+01])),
        note=u'7/14/11therm')

species(name=u'ch3co',
        atoms='H:3 C:2 O:1',
        thermo=(NASA([200.00, 1000.00],
                     [ 4.03587050E+00,  8.77294870E-04,  3.07100100E-05,
                      -3.92475650E-08,  1.52968690E-11, -2.68207380E+03,
                       7.86176820E+00]),
                NASA([1000.00, 6000.00],
                     [ 5.31371650E+00,  9.17377930E-03, -3.32203860E-06,
                       5.39474560E-10, -3.24523680E-14, -3.64504140E+03,
                      -1.67575580E+00])),
        note=u'iu2/03')

species(name=u'c3h3',
        atoms='H:3 C:3',
        thermo=(NASA([200.00, 1000.00],
                     [ 1.35110873E+00,  3.27411291E-02, -4.73827407E-05,
                       3.76310220E-08, -1.18541128E-11,  4.07679941E+04,
                       1.52058598E+01]),
                NASA([1000.00, 6000.00],
                     [ 7.14221719E+00,  7.61902211E-03, -2.67460030E-06,
                       4.24914904E-10, -2.51475443E-14,  3.95709594E+04,
                      -1.25848690E+01])),
        note=u't7/11')

species(name=u'furan',
        atoms='H:4 C:4 O:1',
        thermo=(NASA([200.00, 1000.00],
                     [ 8.47468962E-01,  1.31773848E-02,  5.99735711E-05,
                      -9.71562635E-08,  4.22733668E-11, -5.30444911E+03,
                       2.14931050E+01]),
                NASA([1000.00, 6000.00],
                     [ 9.38934815E+00,  1.40291272E-02, -5.07755291E-06,
                       8.24137746E-10, -4.95320289E-14, -8.61901204E+03,
                      -2.79176954E+01])),
        note=u'T05/10')

species(name=u'ch3',
        atoms='H:3 C:1',
        thermo=(NASA([200.00, 1000.00],
                     [ 3.65717970E+00,  2.12659790E-03,  5.45838830E-06,
                      -6.61810030E-09,  2.46570740E-12,  1.64227160E+04,
                       1.67353540E+00]),
                NASA([1000.00, 6000.00],
                     [ 2.97812060E+00,  5.79785200E-03, -1.97558000E-06,
                       3.07297900E-10, -1.79174160E-14,  1.65095130E+04,
                       4.72247990E+00])),
        note=u'iu0702')

species(name=u'ch2chchco',
        atoms='H:4 C:4 O:1',
        thermo=(NASA([298.00, 1000.00],
                     [ 5.03038730E-01,  4.07949670E-02, -3.62683160E-05,
                       1.77098670E-08, -3.62424620E-12,  2.20914160E+03,
                       2.36927640E+01]),
                NASA([1000.00, 2000.00],
                     [ 4.69285230E+00,  2.50649130E-02, -1.42170360E-05,
                       4.03821390E-09, -4.63633100E-13,  1.31971880E+03,
                       3.22203550E+00])))

species(name=u'c2h6',
        atoms='H:6 C:2',
        thermo=(NASA([200.00, 1000.00],
                     [ 4.29142572E+00, -5.50154901E-03,  5.99438458E-05,
                      -7.08466469E-08,  2.68685836E-11, -1.15222056E+04,
                       2.66678994E+00]),
                NASA([1000.00, 6000.00],
                     [ 4.04666411E+00,  1.53538802E-02, -5.47039485E-06,
                       8.77826544E-10, -5.23167531E-14, -1.24473499E+04,
                      -9.68698313E-01])),
        note=u'g8/88')

species(name=u'ch4',
        atoms='H:4 C:1',
        thermo=(NASA([200.00, 1000.00],
                     [ 5.14911468E+00, -1.36622009E-02,  4.91453921E-05,
                      -4.84246767E-08,  1.66603441E-11, -1.02465983E+04,
                      -4.63848842E+00]),
                NASA([1000.00, 6000.00],
                     [ 1.65326226E+00,  1.00263099E-02, -3.31661238E-06,
                       5.36483138E-10, -3.14696758E-14, -1.00095936E+04,
                       9.90506283E+00])),
        note=u'g8/99')

species(name=u'c6h6',
        atoms='H:6 C:6',
        thermo=(NASA([200.00, 1000.00],
                     [ 5.04818632E-01,  1.85020642E-02,  7.38345881E-05,
                      -1.18135741E-07,  5.07210429E-11,  8.55247913E+03,
                       2.16412893E+01]),
                NASA([1000.00, 6000.00],
                     [ 1.10809576E+01,  2.07176746E-02, -7.52145991E-06,
                       1.22320984E-09, -7.36091279E-14,  4.30641035E+03,
                      -4.00413310E+01])),
        note=u'g6/01')

species(name=u'c4h6',
        atoms='H:6 C:4',
        thermo=(NASA([300.00, 1000.00],
                     [ 1.12844650E-01,  3.43690220E-02, -1.11073920E-05,
                      -9.21066600E-09,  6.20651790E-12,  1.18022700E+04,
                       2.30899960E+01]),
                NASA([1000.00, 3000.00],
                     [ 8.86731340E+00,  1.49186700E-02, -3.15487160E-06,
                      -4.18413300E-10,  1.57612580E-13,  9.13385160E+03,
                      -2.33281710E+01])),
        note=u'h6w/94')

species(name=u'c2h4',
        atoms='H:4 C:2',
        thermo=(NASA([200.00, 1000.00],
                     [ 3.95920063E+00, -7.57051373E-03,  5.70989993E-05,
                      -6.91588352E-08,  2.69884190E-11,  5.08977598E+03,
                       4.09730213E+00]),
                NASA([1000.00, 6000.00],
                     [ 3.99182724E+00,  1.04833908E-02, -3.71721342E-06,
                       5.94628366E-10, -3.53630386E-14,  4.26865851E+03,
                      -2.69081762E-01])),
        note=u'g1/00')

species(name=u'c2h2',
        atoms='H:2 C:2',
        thermo=(NASA([200.00, 1000.00],
                     [ 8.08679682E-01,  2.33615762E-02, -3.55172234E-05,
                       2.80152958E-08, -8.50075165E-12,  2.64289808E+04,
                       1.39396761E+01]),
                NASA([1000.00, 6000.00],
                     [ 4.65878489E+00,  4.88396667E-03, -1.60828888E-06,
                       2.46974544E-10, -1.38605959E-14,  2.57594042E+04,
                      -3.99838194E+00])),
        note=u'g1/91')

species(name=u'c2h3',
        atoms='H:3 C:2',
        thermo=(NASA([200.00, 1000.00],
                     [ 3.36377642E+00,  2.65765722E-04,  2.79620704E-05,
                      -3.72986942E-08,  1.51590176E-11,  3.44749589E+04,
                       7.91510092E+00]),
                NASA([1000.00, 6000.00],
                     [ 4.15026763E+00,  7.54021341E-03, -2.62997847E-06,
                       4.15974048E-10, -2.45407509E-14,  3.38566380E+04,
                       1.72812235E+00])),
        note=u'atct/a')

species(name=u'c4h4',
        atoms='H:4 C:4',
        thermo=(NASA([300.00, 1000.00],
                     [-1.91524790E+00,  5.27508780E-02, -7.16559440E-05,
                       5.50724230E-08, -1.72862280E-11,  3.29785040E+04,
                       3.14199830E+01]),
                NASA([1000.00, 3000.00],
                     [ 6.65070920E+00,  1.61294340E-02, -7.19388750E-06,
                       1.49817870E-09, -1.18641100E-13,  3.11959920E+04,
                      -9.79521180E+00])),
        note=u'h6w/94')

species(name=u'c3h4-a',
        atoms='H:4 C:3',
        thermo=(NASA([200.00, 1000.00],
                     [ 2.61304450E+00,  1.21225750E-02,  1.85398800E-05,
                      -3.45251490E-08,  1.53350790E-11,  2.15415670E+04,
                       1.02261390E+01]),
                NASA([1000.00, 6000.00],
                     [ 6.31687220E+00,  1.11337280E-02, -3.96293780E-06,
                       6.35642380E-10, -3.78755400E-14,  2.01174950E+04,
                      -1.09957660E+01])),
        note=u'l8/89')

species(name=u'fulvene',
        atoms='H:6 C:6',
        thermo=(NASA([200.00, 1000.00],
                     [ 1.25853571E-01,  3.04056534E-02,  4.01806332E-05,
                      -8.27651456E-08,  3.77645005E-11,  2.68838408E+04,
                       2.44628931E+01]),
                NASA([1000.00, 6000.00],
                     [ 1.19233607E+01,  1.98993861E-02, -7.21223888E-06,
                       1.17141499E-09, -7.04278845E-14,  2.27199368E+04,
                      -4.13488172E+01])),
        note=u'C6H6T03/97')

species(name=u'c4h612',
        atoms='H:6 C:4',
        thermo=(NASA([300.00, 1000.00],
                     [ 1.02346700E+00,  3.49591900E-02, -2.20090500E-05,
                       6.94227200E-09, -7.87918700E-13,  1.81179900E+04,
                       1.97506600E+01]),
                NASA([1000.00, 3000.00],
                     [ 1.78155700E+01, -4.25750200E-03,  1.05118500E-05,
                      -4.47384400E-09,  5.84813800E-13,  1.26734200E+04,
                      -6.98266200E+01])),
        note=u'a8/83')

species(name=u'c4h6-2',
        atoms='H:6 C:4',
        thermo=(NASA([300.00, 1000.00],
                     [ 2.13733380E+00,  2.64862290E-02, -9.05687110E-06,
                      -5.53863970E-19,  2.12818840E-22,  1.57109020E+04,
                       1.35294260E+01]),
                NASA([1000.00, 3000.00],
                     [ 9.03381330E+00,  8.21245100E-03,  7.17539520E-06,
                      -5.88343340E-09,  1.03439150E-12,  1.43350680E+04,
                      -2.09857620E+01])),
        note=u'a8/83')

#-------------------------------------------------------------------------------
# Reaction data
#-------------------------------------------------------------------------------
# CFG stripped plog, last P = 120 Torr

# Reaction 1
reaction('mf2 <=> c4h6-1 + co', [5.832000e+67, -15.57, 106213.64])

# Reaction 2
reaction('mf2 <=> c4h612 + co', [4.139000e+94, -22.87, 138453.19])

# Reaction 3
reaction('mf2 <=> ch3co + c3h3', [8.483000e+105, -25.81, 143558.05])

# Reaction 4
reaction('mf2 <=> c3h4-p + ch2co', [2.720000e+85, -20.27, 129434.17])

# Reaction 5
reaction('mf2 <=> mf22j + h', [3.210000e+101, -24.9, 139296.0])
# mf2 <=> c4h6-1+co 1.0 1.0 1.0	!CFG added from Simmie, RST email on Oct. 21, 2013
# plog	/	0.0395	3.484E+75	-17.91	109793.68	/
# plog	/	0.0789	2.497E+72	-16.95	108587.14	/
# plog	/	0.1579	5.832E+67	-15.57	106213.64	/
# mf2 <=> c4h612+co 1.0 1.0 1.0    !CFG added from Simmie, RST email on Oct. 21, 2013
# plog	/	0.0395	2.234E+98	-24.17	138572.64	/
# plog	/	0.0789	3.264E+94	-22.96	137424.05	/
# plog	/	0.1579	4.139E+94	-22.87	138453.19	/
# mf2 <=> ch3co+c3h3 1.0 1.0 1.0   !CFG added from Simmie, RST email on Oct. 21, 2013
# plog	/	0.0395	1.317E+115	-28.58	148393.35	/
# plog	/	0.0789	8.672E+111	-27.58	147095.08	/
# plog	/	0.1579	8.483E+105	-25.81	143558.05	/
# mf2 <=> c3h4-p+ch2co 1.0 1.0 1.0  !CFG added from Simmie, RST email on Oct. 21, 2013
# plog	/	0.0395	5.446E+92	-22.58	131419.09	/
# plog	/	0.0789	2.618E+90	-21.79	131431.95	/
# plog	/	0.1579	2.720E+85	-20.27	129434.17	/
# mf2 <=> mf22j+h 1.0 1.0 1.0	!CFG added from Simmie, RST email on Oct. 21, 2013
# plog	/	0.0395	1.05E+108	-2.71E+01	140323.00	/
# plog	/	0.0789	6.30E+105	-2.63E+01	140579.00	/
# plog	/	0.1579	3.21E+101	-2.49E+01	139296.00	/
# mf2<=>mf22j+h 4.47E+109 -26.82 147892
# mf2<=>c3h4-p+ch2co 5.97E+98 -24.57 121826
# CFG:  methinks c4h6 is meant here, rather than c4h6-1

# Reaction 6
reaction('mf2 <=> co + c4h6', [4.350000e+96, -23.81, 127635.0])
# mf2<=>co+c4h6-1 4.35E+96 -23.81 127635
# mf2<=>c3h3+ch3co 1.26E+107 -26.7 131919

# Reaction 7
reaction('h + mf2 <=> h2 + mf22j', [3.770000e+06, 2.38, 4709.0])

# Reaction 8
reaction('mf22j <=> co + c4h5-n', [9.480000e+12, 0.27, 40900.0])

# Reaction 9
reaction('h + mf2 <=> furan + ch3', [2.330000e+14, 0.005, 9360.0])

# Reaction 10
reaction('h + mf2 <=> ch3 + ch2chchco', [7.780000e+37, -6.25, 34203.0])

# Reaction 11
reaction('ch3 + mf2 <=> mf22j + ch4', [5.050000e+01, 3.34, 7090.0])

# Reaction 12
reaction('c3h3 + c3h3 <=> c6h6', [1.220000e+65, -15.27, 35149.0])
# CFG try replacing with Sebastian's numbers
# c4h6<=>c4h5-n+h  5.30E44 -8.6 123608.
# c4h6<=>c2h2+c2h4 7.0E12  0.0  67100.0

# Reaction 13
reaction('c4h6 <=> c4h4 + h2', [2.500000e+15, 0.0, 94700.0])

# Reaction 14
reaction('c4h6-2 <=> c4h612', [6.900000e+13, 0.0, 64600.0])

# Reaction 15
reaction('c4h6-2 <=> c4h6', [3.000000e+13, 0.0, 65000.0])

# Reaction 16
reaction('c4h612 <=> c4h6', [2.500000e+13, 0.0, 65000.0])

# Reaction 17
reaction('c2h3 + c2h3 <=> c4h6', [1.500000e+42, -8.8, 12483.0])

# Reaction 18
reaction('c2h3 + c2h3 <=> c3h3 + ch3', [1.800000e+13, 0.0, 0.0])

# Reaction 19
falloff_reaction('c3h3 + ch3 (+ M) <=> c4h612 (+ M)',
                 kf=[1.500000e+12, 0.0, 0.0],
                 kf0=[2.600000e+57, -11.94, 9770.0],
                 falloff=Troe(A=0.175, T3=1340.6, T1=60000.0, T2=9769.8))

# Reaction 20
reaction('c4h6-1 <=> c4h612', [2.500000e+13, 0.0, 65000.0])
# c4h6-1<=>c3h3+ch3 8.54E+20 -1.32E+00 8.06E+04
# PLOG/ 1.00E-03 2.69E+86 -21.76 106760./
# PLOG/ 1.00E-02 5.28E+86 -21.49 109209./
# PLOG/ 1.00E-01 3.19E+85 -20.80 111311./
# PLOG/ 1.00E+00 4.99E+81 -19.37 112156./
# PLOG/ 2.00E+00 6.14E+79 -18.73 111944./
# PLOG/ 5.00E+00 3.39E+76 -17.68 111166./
# PLOG/ 1.00E+01 2.73E+73 -16.71 110127./
# PLOG/ 2.00E+01 5.80E+69 -15.59 108653./
# PLOG/ 5.00E+01 1.10E+64 -13.86 106014./
# PLOG/ 1.00E+02 1.41E+59 -12.41 103533./
# PLOG/ 5.00E+02 6.86E+46 -8.80 96714./
# PLOG/ 1.00E+03 4.37E+41 -7.29 93664./
# CFG original RST

# Reaction 21
reaction('c4h6 <=> c4h5-n + h', [1.330000e+45, -8.62, 123608.0])

# Reaction 22
reaction('c4h6 <=> c2h2 + c2h4', [3.680000e+41, -8.96, 47905.0])

# Reaction 23
reaction('c4h5-n <=> c4h4 + h', [8.470000e+48, -11.18, 51053.0])

# Reaction 24
three_body_reaction('c2h3 + M <=> c2h2 + h + M', [4.140000e+41, -7.5, 45510.0])

# Reaction 25
reaction('c4h5-n + h <=> c4h4 + h2', [1.500000e+13, 0.0, 0.0])

# Reaction 26
three_body_reaction('c2h6 + M <=> ch3 + ch3 + M', [8.810000e+64, -12.76, 111670.0])

# Reaction 27
reaction('ch3co <=> co + ch3', [8.490000e+42, -8.62, 22460.0])

# Reaction 28
reaction('h + ch2co <=> ch3 + co', [7.760000e+08, 1.45, 2780.0])

# Reaction 29
reaction('c4h4 <=> c2h2 + c2h2', [1.210000e+61, -13.5, 109683.0])

# Reaction 30
reaction('c3h3 + c3h3 <=> fulvene', [9.570000e+67, -16.37, 31197.0])

# Reaction 31
reaction('fulvene <=> c6h6', [9.890000e+14, 0.0, 70470.0])

# Reaction 32
three_body_reaction('c3h4-p + M <=> h + c3h3 + M', [1.000000e+17, 0.0, 70000.0])

# Reaction 33
three_body_reaction('ch3 + h + M <=> ch4 + M', [2.210000e+24, -2.17, 0.0])

# Reaction 34
three_body_reaction('c3h4-a + M <=> h + c3h3 + M', [1.000000e+17, 0.0, 70000.0])

# Reaction 35
reaction('c4h5-n <=> c2h2 + c2h3', [4.570000e+40, -8.96, 47920.0])

# Reaction 36
reaction('c2h3 + c2h3 <=> c4h5-n + h', [1.100000e+24, -3.28, 12395.0])

# Reaction 37
reaction('ch3 + c4h6 <=> c4h5-n + ch4', [2.000000e+14, 0.0, 22800.0])

# Reaction 38
reaction('h + c4h5-n <=> c2h4 + c2h2', [1.000000e+13, 0.0, 0.0])

# Reaction 39
reaction('ch3 + c3h3 <=> c2h2 + c2h4', [1.000000e+13, 0.0, 0.0])
# CFG:

# Reaction 40
reaction('ch3 + c3h3 <=> c4h6-1', [2.000000e+13, 0.0, 0.0])

# Reaction 41
reaction('c4h6-1 <=> c4h6', [1.000000e+06, 0.0, 0.0])

# Reaction 42
reaction('h + c4h4 <=> c2h3 + c2h2', [5.010000e+12, 0.0, 0.0])

# Reaction 43
reaction('c2h3 + c2h3 <=> c2h2 + c2h4', [1.000000e+13, 0.0, 0.0])
