"""




"""

units(length='cm', time='s', quantity='mol', act_energy='cal/mol')

ideal_gas(name='gas',
          elements="O H Al Cl E Ar",
          species="""ALCL3  e-     AR""",
          initial_state=state(temperature=300.0, pressure=OneAtm))

#-------------------------------------------------------------------------------
# Species data
#-------------------------------------------------------------------------------

species(name=u'ALCL3',
        atoms='Al:1 Cl:3',
        thermo=(NASA9([200.00, 1000.00],
                      [ 7.750600970E+04, -1.440779717E+03,  1.401744141E+01,
                       -6.381631240E-03,  5.871674720E-06, -2.908872278E-09,
                        5.994050890E-13, -6.579343180E+04, -4.494017799E+01]),
                NASA9([1000.00, 6000.00],
                      [-1.378630916E+05, -5.579207290E+01,  1.004190387E+01,
                       -1.682165339E-05,  3.724664660E-09, -4.275526780E-13,
                        1.982341329E-17, -7.343407470E+04, -2.045130429E+01])),
        note='Gurvich,1996a pt1 p173 pt2 p134. [tpis96]')

species(name=u'e-',
        atoms='E:1',
        thermo=(NASA9([298.15, 1000.00],
                      [ 0.000000000E+00,  0.000000000E+00,  2.500000000E+00,
                        0.000000000E+00,  0.000000000E+00,  0.000000000E+00,
                        0.000000000E+00, -7.453750000E+02, -1.172081224E+01]),
                NASA9([1000.00, 6000.00],
                      [ 0.000000000E+00,  0.000000000E+00,  2.500000000E+00,
                        0.000000000E+00,  0.000000000E+00,  0.000000000E+00,
                        0.000000000E+00, -7.453750000E+02, -1.172081224E+01]),
                NASA9([6000.00, 20000.00],
                      [ 0.000000000E+00,  0.000000000E+00,  2.500000000E+00,
                        0.000000000E+00,  0.000000000E+00,  0.000000000E+00,
                        0.000000000E+00, -7.453750000E+02, -1.172081224E+01])),
        note='Ref-Species. Chase, 1998 3/82. [912/98]')

species(name=u'AR',
        atoms='Ar:1',
        thermo=(NASA9([200.00, 1000.00],
                      [ 0.000000000E+00,  0.000000000E+00,  2.500000000E+00,
                        0.000000000E+00,  0.000000000E+00,  0.000000000E+00,
                        0.000000000E+00, -7.453750000E+02,  4.379674910E+00]),),
        note='Ref-Elm. Moore,1971. Gordon,1999.. [g 3/98]')
